4P6X
  PyMOL2.1          3D                             0

 56 59  0  0  0  0  0  0  0  0999 V2000
    2.6927   31.8506   -3.7912 H   0  0  0  0  0  0  0  0  0  0  0  0
    4.4871   31.4742   -3.9939 H   0  0  0  0  0  0  0  0  0  0  0  0
    4.2312   31.7890   -1.7340 H   0  0  0  0  0  0  0  0  0  0  0  0
    3.0023   33.0789   -1.9372 H   0  0  0  0  0  0  0  0  0  0  0  0
    1.6140   31.1061   -7.4333 H   0  0  0  0  0  0  0  0  0  0  0  0
    6.5175   29.8990  -10.4913 H   0  0  0  0  0  0  0  0  0  0  0  0
    6.1556   35.2899   -3.2604 H   0  0  0  0  0  0  0  0  0  0  0  0
    3.0082   27.4220  -11.6675 H   0  0  0  0  0  0  0  0  0  0  0  0
    6.0872   35.8658   -5.3348 H   0  0  0  0  0  0  0  0  0  0  0  0
    4.3664   36.0115   -5.8202 H   0  0  0  0  0  0  0  0  0  0  0  0
    6.4867   34.1385   -6.8348 H   0  0  0  0  0  0  0  0  0  0  0  0
    5.5181   35.3497   -7.7591 H   0  0  0  0  0  0  0  0  0  0  0  0
    3.5560   33.9993   -7.5324 H   0  0  0  0  0  0  0  0  0  0  0  0
    5.1958   32.1134   -5.8875 H   0  0  0  0  0  0  0  0  0  0  0  0
    3.4694   30.6373   -5.6921 H   0  0  0  0  0  0  0  0  0  0  0  0
    3.1153   29.9973   -8.1724 H   0  0  0  0  0  0  0  0  0  0  0  0
    4.8295   30.1413   -7.5743 H   0  0  0  0  0  0  0  0  0  0  0  0
    5.9960   32.3615   -7.9483 H   0  0  0  0  0  0  0  0  0  0  0  0
    6.4207   34.0174   -9.5745 H   0  0  0  0  0  0  0  0  0  0  0  0
    4.7189   34.2746   -9.8866 H   0  0  0  0  0  0  0  0  0  0  0  0
    6.4899   32.3818  -11.2296 H   0  0  0  0  0  0  0  0  0  0  0  0
    4.8195   32.7720  -11.6057 H   0  0  0  0  0  0  0  0  0  0  0  0
    2.1320   32.1891   -8.6879 H   0  0  0  0  0  0  0  0  0  0  0  0
    3.0224   33.2176   -9.8351 H   0  0  0  0  0  0  0  0  0  0  0  0
    2.5121   31.5814  -10.3168 H   0  0  0  0  0  0  0  0  0  0  0  0
    1.6932   33.5404   -4.3560 H   0  0  0  0  0  0  0  0  0  0  0  0
    2.5482   35.0462   -4.7664 H   0  0  0  0  0  0  0  0  0  0  0  0
    2.0980   33.8992   -6.0514 H   0  0  0  0  0  0  0  0  0  0  0  0
    3.3473   28.9543   -9.9644 H   0  0  0  0  0  0  0  0  0  0  0  0
    4.8752   28.3537  -10.6591 H   0  0  0  0  0  0  0  0  0  0  0  0
    3.7200   32.2140   -3.7650 C   0  0  0  0  0  0  0  0  0  0  0  0
    3.9320   32.6580   -2.3200 C   0  0  0  0  0  0  0  0  0  0  0  0
    5.0250   33.7010   -2.2190 C   0  0  0  0  0  0  0  0  0  0  0  0
    5.3930   34.5200   -3.3780 C   0  0  0  0  0  0  0  0  0  0  0  0
    4.8210   34.3510   -4.5760 C   0  0  0  0  0  0  0  0  0  0  0  0
    5.1970   35.3250   -5.6560 C   0  0  0  0  0  0  0  0  0  0  0  0
    5.5140   34.6160   -6.9530 C   0  0  0  0  0  0  0  0  0  0  0  0
    4.5070   33.5230   -7.2940 C   0  0  0  0  0  0  0  0  0  0  0  0
    4.2310   32.5540   -6.1390 C   0  0  0  0  0  0  0  0  0  0  0  0
    3.7760   33.2740   -4.8480 C   0  0  0  0  0  0  0  0  0  0  0  0
    3.9040   30.6620   -7.8200 C   0  0  0  0  0  0  0  0  0  0  0  0
    3.3700   31.3200   -6.5360 C   0  0  0  0  0  0  0  0  0  0  0  0
    4.1930   31.6290   -8.9690 C   0  0  0  0  0  0  0  0  0  0  0  0
    5.0990   32.7340   -8.4430 C   0  0  0  0  0  0  0  0  0  0  0  0
    5.4640   33.5060   -9.6810 C   0  0  0  0  0  0  0  0  0  0  0  0
    5.4920   32.4750  -10.8010 C   0  0  0  0  0  0  0  0  0  0  0  0
    5.0350   31.1780  -10.1900 C   0  0  0  0  0  0  0  0  0  0  0  0
    2.8700   32.1950   -9.4900 C   0  0  0  0  0  0  0  0  0  0  0  0
    2.4320   33.9920   -5.0180 C   0  0  0  0  0  0  0  0  0  0  0  0
    4.3440   30.3240  -11.2360 C   0  0  0  0  0  0  0  0  0  0  0  0
    3.9710   28.9290  -10.8580 C   0  0  0  0  0  0  0  0  0  0  0  0
    5.6260   33.8680   -1.1720 O   0  0  0  0  0  0  0  0  0  0  0  0
    1.9550   31.5780   -6.6700 O   0  0  0  0  0  0  0  0  0  0  0  0
    6.2270   30.4770   -9.7820 O   0  0  0  0  0  0  0  0  0  0  0  0
    4.0740   30.7530  -12.3530 O   0  0  0  0  0  0  0  0  0  0  0  0
    3.2460   28.3180  -11.9170 O   0  0  0  0  0  0  0  0  0  0  0  0
  1 31  1  0  0  0  0
  2 31  1  0  0  0  0
 31 32  1  0  0  0  0
 31 40  1  0  0  0  0
  3 32  1  0  0  0  0
  4 32  1  0  0  0  0
 32 33  1  0  0  0  0
 33 34  1  0  0  0  0
 33 52  2  0  0  0  0
  7 34  1  0  0  0  0
 34 35  2  0  0  0  0
 35 36  1  0  0  0  0
 35 40  1  0  0  0  0
  9 36  1  0  0  0  0
 10 36  1  0  0  0  0
 36 37  1  0  0  0  0
 11 37  1  0  0  0  0
 12 37  1  0  0  0  0
 37 38  1  0  0  0  0
 13 38  1  0  0  0  0
 38 39  1  0  0  0  0
 38 44  1  0  0  0  0
 14 39  1  0  0  0  0
 39 40  1  0  0  0  0
 39 42  1  0  0  0  0
 40 49  1  0  0  0  0
 16 41  1  0  0  0  0
 17 41  1  0  0  0  0
 41 42  1  0  0  0  0
 41 43  1  0  0  0  0
 15 42  1  0  0  0  0
 42 53  1  0  0  0  0
 43 44  1  0  0  0  0
 43 47  1  0  0  0  0
 43 48  1  0  0  0  0
 18 44  1  0  0  0  0
 44 45  1  0  0  0  0
 19 45  1  0  0  0  0
 20 45  1  0  0  0  0
 45 46  1  0  0  0  0
 21 46  1  0  0  0  0
 22 46  1  0  0  0  0
 46 47  1  0  0  0  0
 47 50  1  0  0  0  0
 47 54  1  0  0  0  0
 23 48  1  0  0  0  0
 24 48  1  0  0  0  0
 25 48  1  0  0  0  0
 26 49  1  0  0  0  0
 27 49  1  0  0  0  0
 28 49  1  0  0  0  0
 50 51  1  0  0  0  0
 50 55  2  0  0  0  0
 29 51  1  0  0  0  0
 30 51  1  0  0  0  0
 51 56  1  0  0  0  0
  5 53  1  0  0  0  0
  6 54  1  0  0  0  0
  8 56  1  0  0  0  0
M  END
$$$$
