1H61_PDN_A_1366
  PyMOL2.1          3D                             0

 52 55  0  0  0  0  0  0  0  0999 V2000
   20.6360   11.8580   21.1480 C   0  0  0  0  0  0  0  0  0  0  0  0
   19.8830   10.8510   21.7620 C   0  0  0  0  0  0  0  0  0  0  0  0
   19.9560    9.4330   21.3450 C   0  0  0  0  0  0  0  0  0  0  0  0
   20.8590    9.1250   20.2320 C   0  0  0  0  0  0  0  0  0  0  0  0
   21.6370   10.0390   19.5700 C   0  0  0  0  0  0  0  0  0  0  0  0
   22.6180    9.6090   18.3600 C   0  0  0  0  0  0  0  0  0  0  0  0
   22.3850   10.5890   17.2900 C   0  0  0  0  0  0  0  0  0  0  0  0
   22.3900   11.9700   17.5600 C   0  0  0  0  0  0  0  0  0  0  0  0
   21.3410   12.3580   18.7210 C   0  0  0  0  0  0  0  0  0  0  0  0
   21.6120   11.5620   19.9810 C   0  0  0  0  0  0  0  0  0  0  0  0
   21.3300   13.9430   18.9380 C   0  0  0  0  0  0  0  0  0  0  0  0
   21.1010   14.6660   17.5930 C   0  0  0  0  0  0  0  0  0  0  0  0
   22.1010   14.3630   16.5440 C   0  0  0  0  0  0  0  0  0  0  0  0
   22.0800   12.8410   16.3140 C   0  0  0  0  0  0  0  0  0  0  0  0
   22.9570   12.7100   15.0160 C   0  0  0  0  0  0  0  0  0  0  0  0
   22.7770   13.8840   14.2620 C   0  0  0  0  0  0  0  0  0  0  0  0
   21.7920   14.7760   15.0640 C   0  0  0  0  0  0  0  0  0  0  0  0
   23.4980   14.9490   17.0280 C   0  0  0  0  0  0  0  0  0  0  0  0
   22.9490   11.9490   20.5810 C   0  0  0  0  0  0  0  0  0  0  0  0
   21.8410   16.3270   14.9370 C   0  0  0  0  0  0  0  0  0  0  0  0
   20.8270   16.7680   14.7030 C   0  0  0  0  0  0  0  0  0  0  0  0
   19.3140    8.6000   21.8930 O   0  0  0  0  0  0  0  0  0  0  0  0
   21.4680   14.5740   20.1450 O   0  0  0  0  0  0  0  0  0  0  0  0
   20.3400   14.4000   14.8300 O   0  0  0  0  0  0  0  0  0  0  0  0
   22.8720   16.6590   14.2070 O   0  0  0  0  0  0  0  0  0  0  0  0
   20.9220   18.1250   15.1440 O   0  0  0  0  0  0  0  0  0  0  0  0
   20.5328   12.8838   21.5019 H   0  0  0  0  0  0  0  0  0  0  0  0
   19.2159   11.1219   22.5803 H   0  0  0  0  0  0  0  0  0  0  0  0
   20.9163    8.0868   19.9049 H   0  0  0  0  0  0  0  0  0  0  0  0
   22.4183    8.5917   18.0233 H   0  0  0  0  0  0  0  0  0  0  0  0
   23.6582    9.6396   18.6842 H   0  0  0  0  0  0  0  0  0  0  0  0
   21.3469   10.4020   17.0152 H   0  0  0  0  0  0  0  0  0  0  0  0
   23.1547   10.4166   16.5377 H   0  0  0  0  0  0  0  0  0  0  0  0
   23.4075   12.1837   17.8874 H   0  0  0  0  0  0  0  0  0  0  0  0
   20.3311   12.0823   18.4175 H   0  0  0  0  0  0  0  0  0  0  0  0
   21.1898   15.7324   17.8006 H   0  0  0  0  0  0  0  0  0  0  0  0
   20.1183   14.3806   17.2175 H   0  0  0  0  0  0  0  0  0  0  0  0
   21.0955   12.4020   16.1522 H   0  0  0  0  0  0  0  0  0  0  0  0
   22.6588   11.8347   14.4390 H   0  0  0  0  0  0  0  0  0  0  0  0
   24.0071   12.5977   15.2856 H   0  0  0  0  0  0  0  0  0  0  0  0
   22.3861   13.6589   13.2697 H   0  0  0  0  0  0  0  0  0  0  0  0
   23.7294   14.3976   14.1302 H   0  0  0  0  0  0  0  0  0  0  0  0
   24.2206   14.8826   16.2147 H   0  0  0  0  0  0  0  0  0  0  0  0
   23.3740   15.9922   17.3188 H   0  0  0  0  0  0  0  0  0  0  0  0
   23.8580   14.3738   17.8810 H   0  0  0  0  0  0  0  0  0  0  0  0
   23.6603   12.1532   19.7807 H   0  0  0  0  0  0  0  0  0  0  0  0
   22.8277   12.8414   21.1950 H   0  0  0  0  0  0  0  0  0  0  0  0
   23.3216   11.1310   21.1975 H   0  0  0  0  0  0  0  0  0  0  0  0
   20.0154   16.2276   15.1903 H   0  0  0  0  0  0  0  0  0  0  0  0
   20.6226   16.7222   13.6333 H   0  0  0  0  0  0  0  0  0  0  0  0
   20.0117   13.9046   15.5839 H   0  0  0  0  0  0  0  0  0  0  0  0
   21.1580   18.1439   16.0744 H   0  0  0  0  0  0  0  0  0  0  0  0
  1  2  2  0  0  0  0
  1 10  1  0  0  0  0
  1 27  1  0  0  0  0
  2  3  1  0  0  0  0
  2 28  1  0  0  0  0
  3  4  1  0  0  0  0
  3 22  2  0  0  0  0
  4  5  2  0  0  0  0
  4 29  1  0  0  0  0
  5  6  1  0  0  0  0
  5 10  1  0  0  0  0
  6  7  1  0  0  0  0
  6 30  1  0  0  0  0
  6 31  1  0  0  0  0
  7  8  1  0  0  0  0
  7 32  1  0  0  0  0
  7 33  1  0  0  0  0
  8  9  1  0  0  0  0
  8 14  1  0  0  0  0
  8 34  1  0  0  0  0
  9 10  1  0  0  0  0
  9 11  1  0  0  0  0
  9 35  1  0  0  0  0
 10 19  1  0  0  0  0
 11 12  1  0  0  0  0
 11 23  2  0  0  0  0
 12 13  1  0  0  0  0
 12 36  1  0  0  0  0
 12 37  1  0  0  0  0
 13 14  1  0  0  0  0
 13 17  1  0  0  0  0
 13 18  1  0  0  0  0
 14 15  1  0  0  0  0
 14 38  1  0  0  0  0
 15 16  1  0  0  0  0
 15 39  1  0  0  0  0
 15 40  1  0  0  0  0
 16 17  1  0  0  0  0
 16 41  1  0  0  0  0
 16 42  1  0  0  0  0
 17 20  1  0  0  0  0
 17 24  1  0  0  0  0
 18 43  1  0  0  0  0
 18 44  1  0  0  0  0
 18 45  1  0  0  0  0
 19 46  1  0  0  0  0
 19 47  1  0  0  0  0
 19 48  1  0  0  0  0
 20 21  1  0  0  0  0
 21 26  1  0  0  0  0
 21 49  1  0  0  0  0
 21 50  1  0  0  0  0
 24 51  1  0  0  0  0
 20 25  2  0  0  0  0
 26 52  1  0  0  0  0
M  END
$$$$
